data_image0
_chemical_formula_structural       Pd4H4Pd4H4Pd4H4Pd4H4Pd4H4Pd4H4Pd4H4Pd4H4Pd4H4Pd4H4Pd4H4Pd4H4Pd4H4Pd4H4Pd4H4Pd4H4Pd4H4Pd4H4Pd4H4Pd4H4Pd4H4Pd4H4Pd4H4Pd4H4Pd4H4Pd4H4Pd4H4Pd4H4Pd4H4Pd4H4Pd4H4Pd4H4Pd2H2Pd2H2
_chemical_formula_sum              "Pd132 H132"
_cell_length_a       8.78014
_cell_length_b       8.78014
_cell_length_c       43.1431
_cell_angle_alpha    90
_cell_angle_beta     90
_cell_angle_gamma    60

_space_group_name_H-M_alt    "P 1"
_space_group_IT_number       1

loop_
  _space_group_symop_operation_xyz
  'x, y, z'

loop_
  _atom_site_type_symbol
  _atom_site_label
  _atom_site_symmetry_multiplicity
  _atom_site_fract_x
  _atom_site_fract_y
  _atom_site_fract_z
  _atom_site_occupancy
  Pd  Pd1       1.0  0.00000  0.00000  0.23179  1.0000
  Pd  Pd2       1.0  0.00000  0.33333  0.23179  1.0000
  Pd  Pd3       1.0  0.33333  0.00000  0.23179  1.0000
  Pd  Pd4       1.0  0.33333  0.33333  0.23179  1.0000
  H   H1        1.0  0.22222  0.22222  0.25948  1.0000
  H   H2        1.0  0.22222  0.55556  0.25948  1.0000
  H   H3        1.0  0.55556  0.22222  0.25948  1.0000
  H   H4        1.0  0.55556  0.55556  0.25948  1.0000
  Pd  Pd5       1.0  0.44444  0.44444  0.28718  1.0000
  Pd  Pd6       1.0  0.44444  0.11111  0.28718  1.0000
  Pd  Pd7       1.0  0.11111  0.44444  0.28718  1.0000
  Pd  Pd8       1.0  0.11111  0.11111  0.28718  1.0000
  H   H5        1.0  0.00000  0.00000  0.31487  1.0000
  H   H6        1.0  0.00000  0.33333  0.31487  1.0000
  H   H7        1.0  0.33333  0.00000  0.31487  1.0000
  H   H8        1.0  0.33333  0.33333  0.31487  1.0000
  Pd  Pd9       1.0  0.22222  0.22222  0.34256  1.0000
  Pd  Pd10      1.0  0.22222  0.55556  0.34256  1.0000
  Pd  Pd11      1.0  0.55556  0.22222  0.34256  1.0000
  Pd  Pd12      1.0  0.55556  0.55556  0.34256  1.0000
  H   H9        1.0  0.44444  0.44444  0.37026  1.0000
  H   H10       1.0  0.44444  0.11111  0.37026  1.0000
  H   H11       1.0  0.11111  0.44444  0.37026  1.0000
  H   H12       1.0  0.11111  0.11111  0.37026  1.0000
  Pd  Pd13      1.0  0.00000  0.00000  0.39795  1.0000
  Pd  Pd14      1.0  0.00000  0.33333  0.39795  1.0000
  Pd  Pd15      1.0  0.33333  0.00000  0.39795  1.0000
  Pd  Pd16      1.0  0.33333  0.33333  0.39795  1.0000
  H   H13       1.0  0.22222  0.22222  0.42565  1.0000
  H   H14       1.0  0.22222  0.55556  0.42565  1.0000
  H   H15       1.0  0.55556  0.22222  0.42565  1.0000
  H   H16       1.0  0.55556  0.55556  0.42565  1.0000
  Pd  Pd17      1.0  0.44444  0.44444  0.45334  1.0000
  Pd  Pd18      1.0  0.44444  0.11111  0.45334  1.0000
  Pd  Pd19      1.0  0.11111  0.44444  0.45334  1.0000
  Pd  Pd20      1.0  0.11111  0.11111  0.45334  1.0000
  H   H17       1.0  0.00000  0.00000  0.48104  1.0000
  H   H18       1.0  0.00000  0.33333  0.48104  1.0000
  H   H19       1.0  0.33333  0.00000  0.48104  1.0000
  H   H20       1.0  0.33333  0.33333  0.48104  1.0000
  Pd  Pd21      1.0  0.22222  0.22222  0.50873  1.0000
  Pd  Pd22      1.0  0.22222  0.55556  0.50873  1.0000
  Pd  Pd23      1.0  0.55556  0.22222  0.50873  1.0000
  Pd  Pd24      1.0  0.55556  0.55556  0.50873  1.0000
  H   H21       1.0  0.44444  0.44444  0.53643  1.0000
  H   H22       1.0  0.44444  0.11111  0.53643  1.0000
  H   H23       1.0  0.11111  0.44444  0.53643  1.0000
  H   H24       1.0  0.11111  0.11111  0.53643  1.0000
  Pd  Pd25      1.0  0.00000  0.66667  0.23179  1.0000
  Pd  Pd26      1.0  1.00000  0.00000  0.23179  1.0000
  Pd  Pd27      1.0  0.33333  0.66667  0.23179  1.0000
  Pd  Pd28      1.0  0.33333  0.00000  0.23179  1.0000
  H   H25       1.0  0.22222  0.88889  0.25948  1.0000
  H   H26       1.0  0.22222  0.22222  0.25948  1.0000
  H   H27       1.0  0.55556  0.88889  0.25948  1.0000
  H   H28       1.0  0.55556  0.22222  0.25948  1.0000
  Pd  Pd29      1.0  0.44444  0.11111  0.28718  1.0000
  Pd  Pd30      1.0  0.44444  0.77778  0.28718  1.0000
  Pd  Pd31      1.0  0.11111  0.11111  0.28718  1.0000
  Pd  Pd32      1.0  0.11111  0.77778  0.28718  1.0000
  H   H29       1.0  0.00000  0.66667  0.31487  1.0000
  H   H30       1.0  1.00000  0.00000  0.31487  1.0000
  H   H31       1.0  0.33333  0.66667  0.31487  1.0000
  H   H32       1.0  0.33333  0.00000  0.31487  1.0000
  Pd  Pd33      1.0  0.22222  0.88889  0.34256  1.0000
  Pd  Pd34      1.0  0.22222  0.22222  0.34256  1.0000
  Pd  Pd35      1.0  0.55556  0.88889  0.34256  1.0000
  Pd  Pd36      1.0  0.55556  0.22222  0.34256  1.0000
  H   H33       1.0  0.44444  0.11111  0.37026  1.0000
  H   H34       1.0  0.44444  0.77778  0.37026  1.0000
  H   H35       1.0  0.11111  0.11111  0.37026  1.0000
  H   H36       1.0  0.11111  0.77778  0.37026  1.0000
  Pd  Pd37      1.0  0.00000  0.66667  0.39795  1.0000
  Pd  Pd38      1.0  1.00000  0.00000  0.39795  1.0000
  Pd  Pd39      1.0  0.33333  0.66667  0.39795  1.0000
  Pd  Pd40      1.0  0.33333  0.00000  0.39795  1.0000
  H   H37       1.0  0.22222  0.88889  0.42565  1.0000
  H   H38       1.0  0.22222  0.22222  0.42565  1.0000
  H   H39       1.0  0.55556  0.88889  0.42565  1.0000
  H   H40       1.0  0.55556  0.22222  0.42565  1.0000
  Pd  Pd41      1.0  0.44444  0.11111  0.45334  1.0000
  Pd  Pd42      1.0  0.44444  0.77778  0.45334  1.0000
  Pd  Pd43      1.0  0.11111  0.11111  0.45334  1.0000
  Pd  Pd44      1.0  0.11111  0.77778  0.45334  1.0000
  H   H41       1.0  0.00000  0.66667  0.48104  1.0000
  H   H42       1.0  0.00000  0.00000  0.48104  1.0000
  H   H43       1.0  0.33333  0.66667  0.48104  1.0000
  H   H44       1.0  0.33333  0.00000  0.48104  1.0000
  Pd  Pd45      1.0  0.22222  0.88889  0.50873  1.0000
  Pd  Pd46      1.0  0.22222  0.22222  0.50873  1.0000
  Pd  Pd47      1.0  0.55556  0.88889  0.50873  1.0000
  Pd  Pd48      1.0  0.55556  0.22222  0.50873  1.0000
  H   H45       1.0  0.44444  0.11111  0.53643  1.0000
  H   H46       1.0  0.44444  0.77778  0.53643  1.0000
  H   H47       1.0  0.11111  0.11111  0.53643  1.0000
  H   H48       1.0  0.11111  0.77778  0.53643  1.0000
  Pd  Pd49      1.0  0.00000  0.33333  0.23179  1.0000
  Pd  Pd50      1.0  0.33333  0.33333  0.23179  1.0000
  Pd  Pd51      1.0  0.44444  0.44444  0.28718  1.0000
  Pd  Pd52      1.0  0.11111  0.44444  0.28718  1.0000
  H   H49       1.0  0.00000  0.33333  0.31487  1.0000
  H   H50       1.0  0.33333  0.33333  0.31487  1.0000
  H   H51       1.0  0.44444  0.44444  0.37026  1.0000
  H   H52       1.0  0.11111  0.44444  0.37026  1.0000
  Pd  Pd53      1.0  0.00000  0.33333  0.39795  1.0000
  Pd  Pd54      1.0  0.33333  0.33333  0.39795  1.0000
  Pd  Pd55      1.0  0.44444  0.44444  0.45334  1.0000
  Pd  Pd56      1.0  0.11111  0.44444  0.45334  1.0000
  H   H53       1.0  0.00000  0.33333  0.48104  1.0000
  H   H54       1.0  0.33333  0.33333  0.48104  1.0000
  H   H55       1.0  0.44444  0.44444  0.53643  1.0000
  H   H56       1.0  0.11111  0.44444  0.53643  1.0000
  Pd  Pd57      1.0  0.66667  0.00000  0.23179  1.0000
  Pd  Pd58      1.0  0.66667  0.33333  0.23179  1.0000
  Pd  Pd59      1.0  0.00000  0.00000  0.23179  1.0000
  Pd  Pd60      1.0  1.00000  0.33333  0.23179  1.0000
  H   H57       1.0  0.88889  0.22222  0.25948  1.0000
  H   H58       1.0  0.88889  0.55556  0.25948  1.0000
  H   H59       1.0  0.22222  0.22222  0.25948  1.0000
  H   H60       1.0  0.22222  0.55556  0.25948  1.0000
  Pd  Pd61      1.0  0.11111  0.44444  0.28718  1.0000
  Pd  Pd62      1.0  0.11111  0.11111  0.28718  1.0000
  Pd  Pd63      1.0  0.77778  0.44444  0.28718  1.0000
  Pd  Pd64      1.0  0.77778  0.11111  0.28718  1.0000
  H   H61       1.0  0.66667  0.00000  0.31487  1.0000
  H   H62       1.0  0.66667  0.33333  0.31487  1.0000
  H   H63       1.0  0.00000  0.00000  0.31487  1.0000
  H   H64       1.0  0.00000  0.33333  0.31487  1.0000
  Pd  Pd65      1.0  0.88889  0.22222  0.34256  1.0000
  Pd  Pd66      1.0  0.88889  0.55556  0.34256  1.0000
  Pd  Pd67      1.0  0.22222  0.22222  0.34256  1.0000
  Pd  Pd68      1.0  0.22222  0.55556  0.34256  1.0000
  H   H65       1.0  0.11111  0.44444  0.37026  1.0000
  H   H66       1.0  0.11111  0.11111  0.37026  1.0000
  H   H67       1.0  0.77778  0.44444  0.37026  1.0000
  H   H68       1.0  0.77778  0.11111  0.37026  1.0000
  Pd  Pd69      1.0  0.66667  0.00000  0.39795  1.0000
  Pd  Pd70      1.0  0.66667  0.33333  0.39795  1.0000
  Pd  Pd71      1.0  0.00000  0.00000  0.39795  1.0000
  Pd  Pd72      1.0  1.00000  0.33333  0.39795  1.0000
  H   H69       1.0  0.88889  0.22222  0.42565  1.0000
  H   H70       1.0  0.88889  0.55556  0.42565  1.0000
  H   H71       1.0  0.22222  0.22222  0.42565  1.0000
  H   H72       1.0  0.22222  0.55556  0.42565  1.0000
  Pd  Pd73      1.0  0.11111  0.44444  0.45334  1.0000
  Pd  Pd74      1.0  0.11111  0.11111  0.45334  1.0000
  Pd  Pd75      1.0  0.77778  0.44444  0.45334  1.0000
  Pd  Pd76      1.0  0.77778  0.11111  0.45334  1.0000
  H   H73       1.0  0.66667  0.00000  0.48104  1.0000
  H   H74       1.0  0.66667  0.33333  0.48104  1.0000
  H   H75       1.0  0.00000  0.00000  0.48104  1.0000
  H   H76       1.0  0.00000  0.33333  0.48104  1.0000
  Pd  Pd77      1.0  0.88889  0.22222  0.50873  1.0000
  Pd  Pd78      1.0  0.88889  0.55556  0.50873  1.0000
  Pd  Pd79      1.0  0.22222  0.22222  0.50873  1.0000
  Pd  Pd80      1.0  0.22222  0.55556  0.50873  1.0000
  H   H77       1.0  0.11111  0.44444  0.53643  1.0000
  H   H78       1.0  0.11111  0.11111  0.53643  1.0000
  H   H79       1.0  0.77778  0.44444  0.53643  1.0000
  H   H80       1.0  0.77778  0.11111  0.53643  1.0000
  Pd  Pd81      1.0  0.66667  0.66667  0.23179  1.0000
  Pd  Pd82      1.0  0.66667  0.00000  0.23179  1.0000
  Pd  Pd83      1.0  0.00000  0.66667  0.23179  1.0000
  Pd  Pd84      1.0  0.00000  0.00000  0.23179  1.0000
  H   H81       1.0  0.88889  0.88889  0.25948  1.0000
  H   H82       1.0  0.88889  0.22222  0.25948  1.0000
  H   H83       1.0  0.22222  0.88889  0.25948  1.0000
  H   H84       1.0  0.22222  0.22222  0.25948  1.0000
  Pd  Pd85      1.0  0.11111  0.11111  0.28718  1.0000
  Pd  Pd86      1.0  0.11111  0.77778  0.28718  1.0000
  Pd  Pd87      1.0  0.77778  0.11111  0.28718  1.0000
  Pd  Pd88      1.0  0.77778  0.77778  0.28718  1.0000
  H   H85       1.0  0.66667  0.66667  0.31487  1.0000
  H   H86       1.0  0.66667  0.00000  0.31487  1.0000
  H   H87       1.0  0.00000  0.66667  0.31487  1.0000
  H   H88       1.0  0.00000  0.00000  0.31487  1.0000
  Pd  Pd89      1.0  0.88889  0.88889  0.34256  1.0000
  Pd  Pd90      1.0  0.88889  0.22222  0.34256  1.0000
  Pd  Pd91      1.0  0.22222  0.88889  0.34256  1.0000
  Pd  Pd92      1.0  0.22222  0.22222  0.34256  1.0000
  H   H89       1.0  0.11111  0.11111  0.37026  1.0000
  H   H90       1.0  0.11111  0.77778  0.37026  1.0000
  H   H91       1.0  0.77778  0.11111  0.37026  1.0000
  H   H92       1.0  0.77778  0.77778  0.37026  1.0000
  Pd  Pd93      1.0  0.66667  0.66667  0.39795  1.0000
  Pd  Pd94      1.0  0.66667  0.00000  0.39795  1.0000
  Pd  Pd95      1.0  0.00000  0.66667  0.39795  1.0000
  Pd  Pd96      1.0  0.00000  0.00000  0.39795  1.0000
  H   H93       1.0  0.88889  0.88889  0.42565  1.0000
  H   H94       1.0  0.88889  0.22222  0.42565  1.0000
  H   H95       1.0  0.22222  0.88889  0.42565  1.0000
  H   H96       1.0  0.22222  0.22222  0.42565  1.0000
  Pd  Pd97      1.0  0.11111  0.11111  0.45334  1.0000
  Pd  Pd98      1.0  0.11111  0.77778  0.45334  1.0000
  Pd  Pd99      1.0  0.77778  0.11111  0.45334  1.0000
  Pd  Pd100     1.0  0.77778  0.77778  0.45334  1.0000
  H   H97       1.0  0.66667  0.66667  0.48104  1.0000
  H   H98       1.0  0.66667  0.00000  0.48104  1.0000
  H   H99       1.0  0.00000  0.66667  0.48104  1.0000
  H   H100      1.0  0.00000  0.00000  0.48104  1.0000
  Pd  Pd101     1.0  0.88889  0.88889  0.50873  1.0000
  Pd  Pd102     1.0  0.88889  0.22222  0.50873  1.0000
  Pd  Pd103     1.0  0.22222  0.88889  0.50873  1.0000
  Pd  Pd104     1.0  0.22222  0.22222  0.50873  1.0000
  H   H101      1.0  0.11111  0.11111  0.53643  1.0000
  H   H102      1.0  0.11111  0.77778  0.53643  1.0000
  H   H103      1.0  0.77778  0.11111  0.53643  1.0000
  H   H104      1.0  0.77778  0.77778  0.53643  1.0000
  Pd  Pd105     1.0  0.66667  0.33333  0.23179  1.0000
  Pd  Pd106     1.0  1.00000  0.33333  0.23179  1.0000
  Pd  Pd107     1.0  0.11111  0.44444  0.28718  1.0000
  Pd  Pd108     1.0  0.77778  0.44444  0.28718  1.0000
  H   H105      1.0  0.66667  0.33333  0.31487  1.0000
  H   H106      1.0  0.00000  0.33333  0.31487  1.0000
  H   H107      1.0  0.11111  0.44444  0.37026  1.0000
  H   H108      1.0  0.77778  0.44444  0.37026  1.0000
  Pd  Pd109     1.0  0.66667  0.33333  0.39795  1.0000
  Pd  Pd110     1.0  0.00000  0.33333  0.39795  1.0000
  Pd  Pd111     1.0  0.11111  0.44444  0.45334  1.0000
  Pd  Pd112     1.0  0.77778  0.44444  0.45334  1.0000
  H   H109      1.0  0.66667  0.33333  0.48104  1.0000
  H   H110      1.0  0.00000  0.33333  0.48104  1.0000
  H   H111      1.0  0.11111  0.44444  0.53643  1.0000
  H   H112      1.0  0.77778  0.44444  0.53643  1.0000
  Pd  Pd113     1.0  0.33333  0.00000  0.23179  1.0000
  Pd  Pd114     1.0  0.33333  0.33333  0.23179  1.0000
  Pd  Pd115     1.0  0.44444  0.44444  0.28718  1.0000
  Pd  Pd116     1.0  0.44444  0.11111  0.28718  1.0000
  H   H113      1.0  0.33333  0.00000  0.31487  1.0000
  H   H114      1.0  0.33333  0.33333  0.31487  1.0000
  H   H115      1.0  0.44444  0.44444  0.37026  1.0000
  H   H116      1.0  0.44444  0.11111  0.37026  1.0000
  Pd  Pd117     1.0  0.33333  0.00000  0.39795  1.0000
  Pd  Pd118     1.0  0.33333  0.33333  0.39795  1.0000
  Pd  Pd119     1.0  0.44444  0.44444  0.45334  1.0000
  Pd  Pd120     1.0  0.44444  0.11111  0.45334  1.0000
  H   H117      1.0  0.33333  0.00000  0.48104  1.0000
  H   H118      1.0  0.33333  0.33333  0.48104  1.0000
  H   H119      1.0  0.44444  0.44444  0.53643  1.0000
  H   H120      1.0  0.44444  0.11111  0.53643  1.0000
  Pd  Pd121     1.0  0.33333  0.66667  0.23179  1.0000
  Pd  Pd122     1.0  0.33333  0.00000  0.23179  1.0000
  Pd  Pd123     1.0  0.44444  0.11111  0.28718  1.0000
  Pd  Pd124     1.0  0.44444  0.77778  0.28718  1.0000
  H   H121      1.0  0.33333  0.66667  0.31487  1.0000
  H   H122      1.0  0.33333  0.00000  0.31487  1.0000
  H   H123      1.0  0.44444  0.11111  0.37026  1.0000
  H   H124      1.0  0.44444  0.77778  0.37026  1.0000
  Pd  Pd125     1.0  0.33333  0.66667  0.39795  1.0000
  Pd  Pd126     1.0  0.33333  0.00000  0.39795  1.0000
  Pd  Pd127     1.0  0.44444  0.11111  0.45334  1.0000
  Pd  Pd128     1.0  0.44444  0.77778  0.45334  1.0000
  H   H125      1.0  0.33333  0.66667  0.48104  1.0000
  H   H126      1.0  0.33333  0.00000  0.48104  1.0000
  H   H127      1.0  0.44444  0.11111  0.53643  1.0000
  H   H128      1.0  0.44444  0.77778  0.53643  1.0000
  Pd  Pd129     1.0  0.33333  0.33333  0.23179  1.0000
  Pd  Pd130     1.0  0.44444  0.44444  0.28718  1.0000
  H   H129      1.0  0.33333  0.33333  0.31487  1.0000
  H   H130      1.0  0.44444  0.44444  0.37026  1.0000
  Pd  Pd131     1.0  0.33333  0.33333  0.39795  1.0000
  Pd  Pd132     1.0  0.44444  0.44444  0.45334  1.0000
  H   H131      1.0  0.33333  0.33333  0.48104  1.0000
  H   H132      1.0  0.44444  0.44444  0.53643  1.0000
