data_image0
_chemical_formula_structural       Pd4H4Pd4H4Pd4H4Pd4H4Pd4H4Pd4H4Pd2H2Pd2H2Pd2H2Pd2H2Pd2H2Pd2H2Pd2H2Pd2H2Pd2H2Pd2H2Pd2H2Pd2H2PdHPdHPdHPdHPdHPdH
_chemical_formula_sum              "Pd54 H54"
_cell_length_a       8.77429
_cell_length_b       8.77429
_cell_length_c       43.1431
_cell_angle_alpha    90
_cell_angle_beta     90
_cell_angle_gamma    60

_space_group_name_H-M_alt    "P 1"
_space_group_IT_number       1

loop_
  _space_group_symop_operation_xyz
  'x, y, z'

loop_
  _atom_site_type_symbol
  _atom_site_label
  _atom_site_symmetry_multiplicity
  _atom_site_fract_x
  _atom_site_fract_y
  _atom_site_fract_z
  _atom_site_occupancy
  Pd  Pd1       1.0  0.00000  0.00000  0.23179  1.0000
  Pd  Pd2       1.0  0.00000  0.33356  0.23179  1.0000
  Pd  Pd3       1.0  0.33356  0.00000  0.23179  1.0000
  Pd  Pd4       1.0  0.33356  0.33356  0.23179  1.0000
  H   H1        1.0  0.22237  0.22237  0.25948  1.0000
  H   H2        1.0  0.22237  0.55593  0.25948  1.0000
  H   H3        1.0  0.55593  0.22237  0.25948  1.0000
  H   H4        1.0  0.55593  0.55593  0.25948  1.0000
  Pd  Pd5       1.0  0.44474  0.44474  0.28718  1.0000
  Pd  Pd6       1.0  0.44474  0.11119  0.28718  1.0000
  Pd  Pd7       1.0  0.11119  0.44474  0.28718  1.0000
  Pd  Pd8       1.0  0.11119  0.11119  0.28718  1.0000
  H   H5        1.0  0.00000  0.00000  0.31487  1.0000
  H   H6        1.0  0.00000  0.33356  0.31487  1.0000
  H   H7        1.0  0.33356  0.00000  0.31487  1.0000
  H   H8        1.0  0.33356  0.33356  0.31487  1.0000
  Pd  Pd9       1.0  0.22237  0.22237  0.34256  1.0000
  Pd  Pd10      1.0  0.22237  0.55593  0.34256  1.0000
  Pd  Pd11      1.0  0.55593  0.22237  0.34256  1.0000
  Pd  Pd12      1.0  0.55593  0.55593  0.34256  1.0000
  H   H9        1.0  0.44474  0.44474  0.37026  1.0000
  H   H10       1.0  0.44474  0.11119  0.37026  1.0000
  H   H11       1.0  0.11119  0.44474  0.37026  1.0000
  H   H12       1.0  0.11119  0.11119  0.37026  1.0000
  Pd  Pd13      1.0  0.00000  0.00000  0.39795  1.0000
  Pd  Pd14      1.0  0.00000  0.33356  0.39795  1.0000
  Pd  Pd15      1.0  0.33356  0.00000  0.39795  1.0000
  Pd  Pd16      1.0  0.33356  0.33356  0.39795  1.0000
  H   H13       1.0  0.22237  0.22237  0.42565  1.0000
  H   H14       1.0  0.22237  0.55593  0.42565  1.0000
  H   H15       1.0  0.55593  0.22237  0.42565  1.0000
  H   H16       1.0  0.55593  0.55593  0.42565  1.0000
  Pd  Pd17      1.0  0.44474  0.44474  0.45334  1.0000
  Pd  Pd18      1.0  0.44474  0.11119  0.45334  1.0000
  Pd  Pd19      1.0  0.11119  0.44474  0.45334  1.0000
  Pd  Pd20      1.0  0.11119  0.11119  0.45334  1.0000
  H   H17       1.0  0.00000  0.00000  0.48104  1.0000
  H   H18       1.0  0.00000  0.33356  0.48104  1.0000
  H   H19       1.0  0.33356  0.00000  0.48104  1.0000
  H   H20       1.0  0.33356  0.33356  0.48104  1.0000
  Pd  Pd21      1.0  0.22237  0.22237  0.50873  1.0000
  Pd  Pd22      1.0  0.22237  0.55593  0.50873  1.0000
  Pd  Pd23      1.0  0.55593  0.22237  0.50873  1.0000
  Pd  Pd24      1.0  0.55593  0.55593  0.50873  1.0000
  H   H21       1.0  0.44474  0.44474  0.53643  1.0000
  H   H22       1.0  0.44474  0.11119  0.53643  1.0000
  H   H23       1.0  0.11119  0.44474  0.53643  1.0000
  H   H24       1.0  0.11119  0.11119  0.53643  1.0000
  Pd  Pd25      1.0  0.00000  0.66711  0.23179  1.0000
  Pd  Pd26      1.0  0.33356  0.66711  0.23179  1.0000
  H   H25       1.0  0.22237  0.88948  0.25948  1.0000
  H   H26       1.0  0.55593  0.88948  0.25948  1.0000
  Pd  Pd27      1.0  0.44474  0.77830  0.28718  1.0000
  Pd  Pd28      1.0  0.11119  0.77830  0.28718  1.0000
  H   H27       1.0  0.00000  0.66711  0.31487  1.0000
  H   H28       1.0  0.33356  0.66711  0.31487  1.0000
  Pd  Pd29      1.0  0.22237  0.88948  0.34256  1.0000
  Pd  Pd30      1.0  0.55593  0.88948  0.34256  1.0000
  H   H29       1.0  0.44474  0.77830  0.37026  1.0000
  H   H30       1.0  0.11119  0.77830  0.37026  1.0000
  Pd  Pd31      1.0  0.00000  0.66711  0.39795  1.0000
  Pd  Pd32      1.0  0.33356  0.66711  0.39795  1.0000
  H   H31       1.0  0.22237  0.88948  0.42565  1.0000
  H   H32       1.0  0.55593  0.88948  0.42565  1.0000
  Pd  Pd33      1.0  0.44474  0.77830  0.45334  1.0000
  Pd  Pd34      1.0  0.11119  0.77830  0.45334  1.0000
  H   H33       1.0  0.00000  0.66711  0.48104  1.0000
  H   H34       1.0  0.33356  0.66711  0.48104  1.0000
  Pd  Pd35      1.0  0.22237  0.88948  0.50873  1.0000
  Pd  Pd36      1.0  0.55593  0.88948  0.50873  1.0000
  H   H35       1.0  0.44474  0.77830  0.53643  1.0000
  H   H36       1.0  0.11119  0.77830  0.53643  1.0000
  Pd  Pd37      1.0  0.66711  0.00000  0.23179  1.0000
  Pd  Pd38      1.0  0.66711  0.33356  0.23179  1.0000
  H   H37       1.0  0.88948  0.22237  0.25948  1.0000
  H   H38       1.0  0.88948  0.55593  0.25948  1.0000
  Pd  Pd39      1.0  0.77830  0.44474  0.28718  1.0000
  Pd  Pd40      1.0  0.77830  0.11119  0.28718  1.0000
  H   H39       1.0  0.66711  0.00000  0.31487  1.0000
  H   H40       1.0  0.66711  0.33356  0.31487  1.0000
  Pd  Pd41      1.0  0.88948  0.22237  0.34256  1.0000
  Pd  Pd42      1.0  0.88948  0.55593  0.34256  1.0000
  H   H41       1.0  0.77830  0.44474  0.37026  1.0000
  H   H42       1.0  0.77830  0.11119  0.37026  1.0000
  Pd  Pd43      1.0  0.66711  0.00000  0.39795  1.0000
  Pd  Pd44      1.0  0.66711  0.33356  0.39795  1.0000
  H   H43       1.0  0.88948  0.22237  0.42565  1.0000
  H   H44       1.0  0.88948  0.55593  0.42565  1.0000
  Pd  Pd45      1.0  0.77830  0.44474  0.45334  1.0000
  Pd  Pd46      1.0  0.77830  0.11119  0.45334  1.0000
  H   H45       1.0  0.66711  0.00000  0.48104  1.0000
  H   H46       1.0  0.66711  0.33356  0.48104  1.0000
  Pd  Pd47      1.0  0.88948  0.22237  0.50873  1.0000
  Pd  Pd48      1.0  0.88948  0.55593  0.50873  1.0000
  H   H47       1.0  0.77830  0.44474  0.53643  1.0000
  H   H48       1.0  0.77830  0.11119  0.53643  1.0000
  Pd  Pd49      1.0  0.66711  0.66711  0.23179  1.0000
  H   H49       1.0  0.88948  0.88948  0.25948  1.0000
  Pd  Pd50      1.0  0.77830  0.77830  0.28718  1.0000
  H   H50       1.0  0.66711  0.66711  0.31487  1.0000
  Pd  Pd51      1.0  0.88948  0.88948  0.34256  1.0000
  H   H51       1.0  0.77830  0.77830  0.37026  1.0000
  Pd  Pd52      1.0  0.66711  0.66711  0.39795  1.0000
  H   H52       1.0  0.88948  0.88948  0.42565  1.0000
  Pd  Pd53      1.0  0.77830  0.77830  0.45334  1.0000
  H   H53       1.0  0.66711  0.66711  0.48104  1.0000
  Pd  Pd54      1.0  0.88948  0.88948  0.50873  1.0000
  H   H54       1.0  0.77830  0.77830  0.53643  1.0000
